Version 4.1
SHEET 1 880 680
WIRE 560 -224 0 -224
WIRE 0 -144 0 -224
WIRE 560 -96 560 -224
WIRE 128 -16 48 -16
WIRE 240 -16 192 -16
WIRE 336 -16 320 -16
WIRE 560 32 560 -16
WIRE 48 64 48 -16
WIRE 208 64 48 64
WIRE 336 64 336 -16
WIRE 336 64 288 64
WIRE 336 112 336 64
WIRE 512 112 336 112
WIRE 48 144 48 64
WIRE 336 160 336 112
WIRE 560 176 560 128
WIRE 0 272 0 -64
WIRE 48 272 48 224
WIRE 48 272 0 272
WIRE 176 272 48 272
WIRE 336 272 336 224
WIRE 336 272 176 272
WIRE 176 336 176 272
FLAG 176 336 0
FLAG 560 176 0
SYMBOL voltage 48 128 R0
WINDOW 123 0 0 Left 0
WINDOW 39 0 0 Left 0
SYMATTR InstName V1
SYMATTR Value PULSE(0 3.3 0 1u 1u 5 10 5)
SYMBOL res 304 48 R90
WINDOW 0 0 56 VBottom 2
WINDOW 3 32 56 VTop 2
SYMATTR InstName R1
SYMATTR Value 1Meg
SYMBOL cap 320 160 R0
SYMATTR InstName C1
SYMATTR Value 1µ
SYMBOL diode 192 -32 R90
WINDOW 0 0 32 VBottom 2
WINDOW 3 32 32 VTop 2
SYMATTR InstName D1
SYMATTR Value 1N4148
SYMBOL res 336 -32 R90
WINDOW 0 0 56 VBottom 2
WINDOW 3 32 56 VTop 2
SYMATTR InstName R2
SYMATTR Value 1k
SYMBOL nmos 512 32 R0
SYMATTR InstName M1
SYMATTR Value 2N7002
SYMBOL res 544 -112 R0
SYMATTR InstName R3
SYMATTR Value 1k
SYMBOL voltage 0 -160 R0
WINDOW 123 0 0 Left 0
WINDOW 39 0 0 Left 0
SYMATTR InstName V2
SYMATTR Value 3.3
TEXT 8 360 Left 2 !.tran 20
